p
p00
p01
p02
p03
p04
p05
p06
p07
p08
p09
p1
p1c
p1i
p2a
p2b
p2c
p2d
p2g
p2i
p2kc
p2l
p2m
p2p
p2v
p3
p3c
p3d
p3e
p3i
p3l
p3p
p3t
p5w
p7
p7b
p7c
p7m
p7r
p7s
p8
p10
p12
p16
p22
p34
p38
p40
p41
p50
p56
p60
p61
p64
p65
p83
p2000
p4200
pa
pa1
pa2
pa3
pa4
pa5
paa
pab
pac
pack
package
pad
pae
paf
pag
page
page1
page2
page3
page4
page5
page6
page7
page8
page9
page10
page11
page12
pages
pai
pai2
pai3
paint
paj
pak
pal
pal1
pal2
palm
pam
pamprt
pan
pando
panel
pani
panic
pano
pap
paq
paq6
paq7
paq8
paq8f
paq8hp12any
paq8jc
paq8l
paq8o
paq8o8
paq8p
paq9a
par
par2
paracount
param
params
parms
parms3
parser
part
part1
part1of2
part2
part2of2
partial
partimg
party
pas
pascal
pasm
pass
passage
passers
pat
patch
patchdocs
patcher
path
pathname
paths
pattern
pau
pause
pav
pav????
pax
pay
payments
payroll
paz
pb
pb1
pb2
pba
pbb
pbc
pbd
pbf
pbh
pbi
pbk
pbl
pbm
pbmp
pbmv
pbn
pbo
pbob
pbp
pbproj
pbq
pbr
pbs
pbt
pbtpl
pbv
pbx
pc
pc1
pc2
pc3
pc5
pc8
pc?
pca
pcap
pcb
pcbdoc
pcc
pcd
pcds
pce
pce-list
pcf
pcg
pch
pch2
pci
pci1
pci3
pcj
pck
pcl
pclf
pcm
pcn
pco
pcp
pcr
pcs
pct
pcu
pcv
pcw
pcx
pd
pd1
pd2
pd3
pd4
pd5
pd_
pda
pdas
pdata
pdb
pdbx
pdc
pdd
pde
pdes
pdf
pdfenx
pdfig
pdg
pdi
pdk
pdl
pdm
pdn
pdo
pdp
pdq
pdr
pds
pdt
pdv
pdw
pdx
pdxa
pdxab
pdxl
pdxz
pdz
pe
pe3
pe4
pea
peb
pebprj
pec
ped
peeker
peekit
pef
peg
peh
pei
pek
pem
pen
peo
pep
pepper
pepsi
peq
per
percentages
performance
perl
pes
pet
petergun
pew
pex
pez
pf
pf?
pf_
pfa
pfb
pfc
pfd
pfdb
pfdt
pfe
pff
pfg
pfk
pfl
pfm
pfo
pfp
pfr
pfs
pft
pfw
pfx
pg
pg1
pg2
pg3
pg_
pga
pgb
pgc
pgd
pge
pgf
pgi
pgl
pgm
pgmeurs
pgml
pgn
pgp
pgpf
pgq
pgr
pgs
pgt
pgu
pgw
pgx
pgz
ph
ph3
ph4
ph_
phantasm
phapack
phar
phaser
phb
phc
phd
phe
phf
phist
phl
phm
phn
pho
php
php3
php4
php5
phpr
phps
phpt
phpw
phq
phr
phs
pht
phtm
phtml
phv
phw
phx
phy
phy2
phys
physao
phz
pi
pi1
pi2
pi2shr
pi3
pi3shr
pi4
pi5
pi6
pi$
pi_
piano
pic
pic1
pic2
pic3
pic4
pic5
pic6
pic8
piccata
pichand
picio
picon
pics
pict
pict1
pict2
pictclipping
pictor
picture
pid
pie
piece
pieces
pif
pifast
pig
pigg
pii
pil
pile
pim
pim1
pin
pinball1
pinball2
pine
pip
pipc
pipe
pipl
piq
piqt
pira
pis
pisi
piste
pit
piv
piw
pix
pixar
pixelpaint
piz
pizza
pj
pj1
pj64
pjd
pjf
pjg
pjl
pjp
pjpeg
pjr
pjs
pjt
pjx
pjxl
pk
pk3
pk4
pka
pkb
pkc
pkd
pkf
pkg
pkglist
pkh
pkk
pkm
pkn
pko
pkp
pkpak
pkr
pks
pkt
pkv
pkx
pky
pkz
pl
pl1
pl3
pl4
pla
plan
plasma
plat
platform
plato
play
play2
player
playlist
playsound
plb
plc
pld
ple
pleasure
plenty2
plex
pleze
plf
plg
plh
pli
plist
plj
plk
pll
plm
plma
pln
plo
plot
plotter
plp
plr
plrstat
pls
plsc
plt
plugin
pluie
plus
plw
plx
ply
plz
pm
pm0
pm1
pm2
pm3
pm4
pm5
pm6
pm7
pm!
pm#
pm$
pm_
pma
pmap
pmapz
pmb
pmc
pmd
pme
pmet
pmf
pmg
pmh
pmi
pmj
pmjx
pmk
pml
pmm
pmn
pmo
pmod
pmp
pmppkg
pmq
pmr
pms
pmt
pmtool
pmu
pmv
pmw
pmx
pmz
pmz4
pn2
pn3
pna
pnagent
pnb
pnc
pnd
pnf
png
pnl
pnm
pnp
pnq
pnr
pns
pnt
pntg
pnu
pnv
pnw
pnx
pny
pnz
po
po2
po3
po5
poa
pob
poc
pod
poem
poems
pof
pog
poh
poi
pok
poker
pol
policy
polka
polygonia
ponglife
poo
pool
pop
por
port
port1
port2
port3
port4
port5
pos
posd
post
postal
postscript
pot
pothtml
potm
potmenx
potx
potxenx
pov
pow
power
power_of_american
powerchord
powerfifth
powerfont
powergs
pp
pp1
pp2
pp3
pp3nscale
pp4
pp5
pp$
ppa
ppam
ppamenx
ppb
ppc
ppd
ppenc
ppf
ppg
ppi
ppj
ppk
ppl
ppm
ppma
ppn
ppo
ppp
ppr
pprint
pps
ppsenx
ppsm
ppsmenx
ppsx
ppsxenx
ppt
pptenx
ppthtml
pptm
pptmenx
pptx
pptxenx
ppu
ppv
ppw
ppx
ppz
pq
pqa
pqb
pqe
pqf
pqg
pqi
pqo
pqt
pqw
pqx
pqz
pr
pr0
pr1
pr2
pr3
pr4
pr5
pr_
pray
prb
prc
prd
pre
precstle
pref
preferences
preferred
prefix
prefpane
prefs
prel
prep
preq
prequal
present
presents
presrel
press
previz
prexport
prf
prf2
prg
prg2
prh
pri
primer
principal
print
print2
printbuf8
printbuf16
printbuf32
printbuf48
printbuf62
printer
prism
privy
prj
prjpcb
prjx
prjzip
prk
prklog
prl
prm
prn
prnx
pro
pro4
pro4pl
pro4plx
pro4x
processor
prodos
product
profile
profiles
prog
program
programmer
proj
project
prolamp
promizer
prop
propacker
propdesc
properties
prorunner
protect
proto
prp
prpreset
prproj
prr
prs
prsl
prt
prt2
prtdot
prtl
prv
prvkr
prw
prx
prz
ps
ps0
ps1
ps2
ps3
ps5
ps16
psa
psafe3
psar
psb
psc
pscollection
psd
pse
pseg
pseg38pp
pseg3820
pset
psetup
psf
psf2
psflib
psflib2
psg
psh
psi
psic
psid
psion
psk
psl
psm
psm5
psmd
psmdoc
psmodel
psmt
psn
pso
psod
psp
pspautosave
pspbrush
pspbumpmap
pspcache
pspcmykprofile
pspd
pspdeformationmap
pspenvironmentmap
pspframe
pspgradient
pspimage
pspmask
psppalette
pspscript
pspselection
pspshape
pspstyledline
psptube
pspworkspace
psq
psr
pss
pssd
pssg
pst
psv
psw
psx
psy
psz
pt
pt3
pt4
pt5
pt6
ptb
ptbl
ptc
ptd
ptdb
pte
ptf
ptg
pth
pti
ptif
ptk
ptl
ptm
ptmc
ptn
pto
ptp
ptr
ptron
pts
ptt
ptu
ptv
ptvw
ptx
pty
ptz
pub
pubhtml
pubkr
public
published
pubmhtml
pud
puf
puhs
pui
pul
pulldown
pumpkin
pumpupjam
punc
punc2
pup
purblepairssave-ms
purbleshopsave-ms
purge
put
puz
puzz
puzzle
pv
pva
pvb
pvc
pvd
pve
pvf
pvg
pvi
pvj
pvk
pvl
pvm
pvn
pvp
pvr
pvs
pvt
pvti
pvtk
pvtp
pvtr
pvts
pvtu
pvu
pvw
pvx
pw
pwa
pwb
pwc
pwcheck
pwd
pwder
pwdp
pwdpl
pwf
pwi
pwinsured
pwk
pwl
pwm
pwp
pwrk
pws
pwt
pwx
pwz
px
px0
px1
pxa
pxb
pxc
pxd
pxe
pxf
pxg
pxi
pxj
pxk
pxl
pxm
pxn
pxo
pxp
pxr
pxs
pxt
pxv
pxw
pxx
pxy
py
py1
py2
pyc
pyd
pym
pyo
python
pyv
pyw
pz
pz2
pz3
pza
pzb
pzc
pzd
pzf
pzfx
pzh
pzi
pzl
pzm
pzo
pzp
pzs
pzt
pzx
pzz
